@<TRIPOS>MOLECULE
AlkEthOH_r131
   10    10     0     0     0
SMALL
USER_CHARGES

@<TRIPOS>ATOM
      1 C1         -0.0127    1.0858    0.0080 C.3       1 <0>        -0.1910
      2 C2         -0.9507    1.6893    1.0704 C.3       1 <0>         0.0320
      3 O1         -1.9513    1.6738    0.0270 O.3       1 <0>        -0.3871
      4 C3         -0.9708    1.7006   -1.0297 C.3       1 <0>         0.0321
      5 H1          0.0021   -0.0041    0.0020 H         1 <0>         0.0942
      6 H2          0.9847    1.5253    0.0008 H         1 <0>         0.0740
      7 H3         -1.1665    1.0173    1.9010 H         1 <0>         0.0915
      8 H4         -0.6654    2.6907    1.3929 H         1 <0>         0.0821
      9 H5         -0.6916    2.7054   -1.3468 H         1 <0>         0.0812
     10 H6         -1.2007    1.0384   -1.8644 H         1 <0>         0.0910
@<TRIPOS>BOND
     1    1    4 1
     2    1    2 1
     3    1    5 1
     4    1    6 1
     5    2    3 1
     6    2    7 1
     7    2    8 1
     8    3    4 1
     9    4    9 1
    10    4   10 1
@<TRIPOS>SUBSTRUCTURE
     1 <0>         1 GROUP 0 A     ****
